7
c1h3n1o2_nitromethane  
C          0.03737       -1.32343        0.00000
N          0.00000        0.17518        0.00000
H         -0.49287       -1.65741        0.88717
H         -0.49287       -1.65741       -0.88717
H          1.07235       -1.64160        0.00000
O          1.06460        0.76712        0.00000
O         -1.10346        0.69172        0.00000
