7
c1h3n1o2_methylnitrite  
C          1.32541        0.33369        0.00000
O          0.00000        0.88644        0.00000
H          1.98455        1.19590        0.00000
H          1.49123       -0.27627        0.88765
H          1.49123       -0.27627       -0.88765
N         -1.04579       -0.04895        0.00000
O         -0.69986       -1.17429        0.00000
