6
c1h4o1_methanol  
  C        0.04643        0.66308        0.00000
  H        1.08818        0.97924        0.00000
  H       -0.43687        1.08028        0.88981
  H       -0.43687        1.08028       -0.88981
  O        0.04643       -0.75702        0.00000
  H       -0.86446       -1.06212        0.00000
