7
c2h4o1_acetaldehyde  
  C       -0.94053       -0.70658        0.00000
  H       -1.98419       -0.39672        0.00000
  H       -0.74463       -1.32376        0.87841
  H       -0.74463       -1.32376       -0.87841
  C        0.00000        0.47340        0.00000
  H       -0.47448        1.47658        0.00000
  O        1.19889        0.37084        0.00000
