9
c3h6_cyclopropane  
  C        0.00000        0.86834        0.00000
  C        0.75201       -0.43417        0.00000
  C       -0.75201       -0.43417        0.00000
  H        0.00000        1.45543        0.90749
  H        1.26044       -0.72772        0.90749
  H       -1.26044       -0.72772        0.90749
  H        0.00000        1.45543       -0.90749
  H        1.26044       -0.72772       -0.90749
  H       -1.26044       -0.72772       -0.90749
