10
c3h6o1_acetone  
  C        0.00000        1.28816       -0.61156
  H        0.87687        1.33201       -1.26150
  H        0.00000        2.14082        0.06204
  H       -0.87687        1.33201       -1.26150
  C        0.00000        0.00000        0.18480
  O        0.00000        0.00000        1.39399
  C        0.00000       -1.28816       -0.61156
  H       -0.87687       -1.33201       -1.26150
  H        0.87687       -1.33201       -1.26150
  H        0.00000       -2.14082        0.06204
