12
c3h8o1_isopropanol  
  C        0.00184        0.03885        0.36310
  C       -1.19602       -0.78136       -0.10287
  C        1.32641       -0.55114       -0.08923
  O       -0.04740        1.36983       -0.16356
  H       -0.00601        0.08455        1.46026
  H       -2.13345       -0.32734        0.22706
  H       -1.21197       -0.84293       -1.19209
  H       -1.15940       -1.79424        0.30235
  H        2.15413        0.07106        0.24961
  H        1.45961       -1.55588        0.31319
  H        1.36270       -0.60472       -1.17843
  H       -0.87980        1.77278        0.10052
