9
c4h4o1_furan
  C        0.00000        0.71596       -0.95547
  H        0.00000        1.36938       -1.81041
  C        0.00000        1.09282        0.34562
  H        0.00000        2.04685        0.84036
  C        0.00000       -0.71596       -0.95547
  H        0.00000       -1.36938       -1.81041
  C        0.00000       -1.09282        0.34562
  H        0.00000       -2.04685        0.84036
  O        0.00000        0.00000        1.15729
