10
c4h6_cyclobutene  
  C        0.00000        0.66718        0.81240
  C        0.00000       -0.66718        0.81240
  C        0.00000        0.78489       -0.69838
  C        0.00000       -0.78489       -0.69838
  H        0.00000        1.41097        1.59803
  H        0.00000       -1.41097        1.59803
  H        0.88638        1.24281       -1.14108
  H       -0.88638       -1.24281       -1.14108
  H       -0.88638        1.24281       -1.14108
  H        0.88638       -1.24281       -1.14108
