10
c4h6_bicyclobutane  
  C        0.74227        0.00000       -0.31824
  C       -0.74227        0.00000       -0.31824
  C        0.00000        1.13434        0.31311
  C        0.00000       -1.13434        0.31311
  H        0.00000       -1.23262        1.39740
  H        0.00000        1.23262        1.39740
  H        0.00000       -2.07851       -0.21946
  H        0.00000        2.07851       -0.21946
  H        1.42755        0.00000       -1.14721
  H       -1.42755        0.00000       -1.14721
