12
c4h8_isobutene  
  C        0.00000        1.27270       -0.67666
  H        0.87626        1.32235       -1.32949
  H        0.00000        2.15400       -0.03697
  H       -0.87626        1.32235       -1.32949
  C        0.00000        0.00000        0.12404
  C        0.00000       -1.27270       -0.67666
  H        0.00000       -2.15400       -0.03697
  H       -0.87626       -1.32235       -1.32949
  H        0.87626       -1.32235       -1.32949
  C        0.00000        0.00000        1.45421
  H        0.00000        0.92210        2.02117
  H        0.00000       -0.92210        2.02117
